20
 xtb: 6.7.1 (edcfbbe)
C           -0.19286946098147        0.09708488284796        0.93569819017878
C           -1.53444831243522        0.00313526831371        1.24749220882987
C           -2.47216593539874       -0.18629361043403        0.24236911089887
C           -2.06380402927074       -0.26964842337918       -1.07967717401564
C           -0.72130579980006       -0.18468569522490       -1.39901516740614
C            0.22764235382719        0.00080586924079       -0.39251949737869
C            1.66409613525175        0.07921953963474       -0.70085534492814
O            1.97014421236760        0.28037977541079       -2.00386579318063
H            0.54176145593017        0.24859943980192        1.70954568912491
H           -1.84775779491551        0.06095512080360        2.27778468019658
H           -3.51723217494185       -0.28345911072348        0.49821704204756
H           -2.80441938874395       -0.42145160092088       -1.85821110280349
H           -0.40981974005015       -0.22963109269071       -2.43509628206414
H            2.09473309604445       -1.16305432017164       -0.37501227589016
H            2.25427240689850        0.63932429307222        0.02352028048342
H            2.89593093621071        0.54150380226178       -2.13835734369062
O            2.57893106321526       -2.12724336633058       -0.13288885989518
O            3.47532596687609       -3.61366854052110        0.44056331568361
H            2.18396471424105       -2.75746001267125       -0.73474097459791
H            3.88787343187058       -3.36836395541808        1.29766314057167
