16

C            -0.2211342747744185             1.2219272878619973             0.2923784682482743
C            -1.5638387744860858             1.0057689498627531             0.5658751816504090
C            -2.1620033871824447            -0.2332573997778736             0.3209587991867462
C            -1.4048140164917857            -1.2819001372634562            -0.2089588810035214
C            -0.0527166602315397            -1.0683705916374788            -0.4856980409594669
C             0.5057420707008514             0.1664722493300751            -0.2319840007208414
C             1.9416377682338588             0.3405388003470180            -0.5427937440267824
O             2.7155819560550669             0.0008545559874774             0.5896036115980334
H             0.2024053330342872             2.1941056065220446             0.4962418301502582
H            -2.1417743377935401             1.8173585138196111             0.9739396383511483
H            -3.2301029432738719            -0.3914962603182781             0.5429190208633213
H            -1.8924519944302387            -2.2188330388449606            -0.3851479957307105
H             0.5508236999828148            -1.8770206141281249            -0.8993527442006758
H             2.1762123409393768             1.4252989465935684            -0.7235602393235698
H             2.2636987153064188            -0.3249439688413863            -1.3594100106578226
H             2.3127345044112664            -0.7765028995130097             1.0549891065751904

