20
 xtb: 6.7.1 (edcfbbe)
C           -0.19693670885411        0.30160119164389        1.05230407271446
C           -1.57261905564830        0.27517185640872        1.20263484822352
C           -2.38562536445528       -0.00753129496141        0.11766745858065
C           -1.81794527637108       -0.26647720479743       -1.11900727880662
C           -0.44302641857371       -0.24410248842025       -1.26785831382471
C            0.37808229531231        0.04116822186903       -0.18472937818762
C            1.87683109569140        0.04537130890302       -0.35510484017135
O            2.31166165909921        0.56006340367464       -1.59616692135163
H            0.43886529386223        0.55715448738939        1.89296210925469
H           -2.00678733480476        0.50637450777395        2.16295355801202
H           -3.45272126161585       -0.03009715626093        0.23808683250670
H           -2.43999984447462       -0.51945861497729       -1.95857484997108
H            0.01788366779898       -0.47433628915400       -2.21840555177317
H            2.25287707519957       -0.97970757810054       -0.31272937833820
H            2.34936322577638        0.62167202305525        0.46083073988341
H            2.02851828703934        1.47113562264957       -1.69333127114975
O            2.65309966261990       -4.37392768552305       -0.19342750786731
O            2.72646208593927       -2.92201907749786       -0.26840764862113
H            2.36127325589599       -4.55007526329140       -1.15604598103431
H            3.17360785749629       -2.75741678038000        0.60403641864291
