4

O            -0.6537166004493005            -0.4367133871088644            -0.1573340883251329
O             0.6201053068086080            -0.4321200651737429             0.1615563252409238
H            -1.0397243302189052             0.4496656142774628             0.0939405249813951
H             1.0733356238595979             0.4191678380051441            -0.0981627618971857

